[TITLE]
;;Project Title/Notes

[OPTIONS]
;;Option            	Value
FLOW_UNITS          	CMS
INFILTRATION        	CURVE_NUMBER
FLOW_ROUTING        	DYNWAVE
LINK_OFFSETS        	DEPTH
MIN_SLOPE           	0
ALLOW_PONDING       	NO
SKIP_STEADY_STATE   	NO

START_DATE           	02-10-2023
START_TIME           	06:30:00
REPORT_START_DATE    	02-10-2023
REPORT_START_TIME    	06:30:00
END_DATE             	02-10-2023
END_TIME             	11:30:00
SWEEP_START         	01/01
SWEEP_END           	01/12
DRY_DAYS            	0
REPORT_STEP         	00:01:00
WET_STEP            	00:01:00
DRY_STEP            	00:01:00
ROUTING_STEP        	0:00:01 
RULE_STEP           	00:00:00

INERTIAL_DAMPING    	PARTIAL
NORMAL_FLOW_LIMITED 	BOTH
FORCE_MAIN_EQUATION 	D-W
VARIABLE_STEP       	0.75
LENGTHENING_STEP    	0
MIN_SURFAREA        	1.14
MAX_TRIALS          	8
HEAD_TOLERANCE      	0.0015
SYS_FLOW_TOL        	5
LAT_FLOW_TOL        	5
MINIMUM_STEP        	0.5
THREADS             	1

[EVAPORATION]
;;Data Source   	Parameters
;;--------------	----------------
CONSTANT        	0
DRY_ONLY        	NO

[RAINGAGES]
;;Name          	Format   	Interval	SCF     	Source    
;;--------------	---------	------	------	----------
;Catania	Genio	Civile
CT-GC           	INTENSITY	00:30:00	1       	TIMESERIES	forecast      

[SUBCATCHMENTS]
;;Name          	Rain Gage       	Outlet          	Area    	%Imperv 	Width   	%Slope  	CurbLen 	SnowPack        
;;--------------	----------------	----------------	--------	--------	--------	--------	--------	----------------
S4              	CT-GC           	4               	0.2687  	70      	25.92   	8.93    	0       	                
S5              	CT-GC           	5               	0.7581  	70      	43.54   	1.93    	0       	                
S6              	CT-GC           	6               	0.4554  	70      	33.74   	0.50    	0       	                
S7              	CT-GC           	7               	0.3154  	70      	28.08   	8.46    	0       	                
S13             	CT-GC           	13              	1.1055  	70      	52.57   	6.76    	0       	                
S14             	CT-GC           	14              	0.2720  	70      	26.08   	4.17    	0       	                
S15             	CT-GC           	15              	0.9015  	70      	47.47   	7.03    	0       	                
S16             	CT-GC           	16              	0.5921  	70      	38.47   	6.08    	0       	                
S19             	CT-GC           	19              	0.5654  	70      	37.60   	4.36    	0       	                
S21             	CT-GC           	21              	0.2074  	70      	22.77   	3.54    	0       	                
S22             	CT-GC           	22              	0.1587  	70      	19.92   	8.40    	0       	                
S23             	CT-GC           	23              	0.3787  	70      	30.77   	3.70    	0       	                
S24             	CT-GC           	24              	0.7341  	70      	42.84   	2.27    	0       	                
S25             	CT-GC           	25              	1.0302  	70      	50.75   	3.50    	0       	                
S29             	CT-GC           	29              	0.8788  	70      	46.87   	0.99    	0       	                
S30             	CT-GC           	30              	0.4667  	70      	34.16   	0.50    	0       	                
S31             	CT-GC           	31              	0.2047  	70      	22.62   	4.89    	0       	                
S33             	CT-GC           	33              	0.3774  	70      	30.72   	6.18    	0       	                
S34             	CT-GC           	34              	0.3027  	70      	27.51   	3.52    	0       	                
S35             	CT-GC           	35              	0.2320  	70      	24.09   	0.50    	0       	                
S36             	CT-GC           	36              	0.4734  	70      	34.40   	5.63    	0       	                
S37             	CT-GC           	37              	0.2400  	70      	24.50   	5.00    	0       	                
S39             	CT-GC           	39              	0.3274  	70      	28.61   	3.46    	0       	                
S40             	CT-GC           	40              	0.5661  	70      	37.62   	2.47    	0       	                
S41             	CT-GC           	41              	0.5741  	70      	37.88   	4.30    	0       	                
S52             	CT-GC           	52              	0.3414  	70      	29.21   	2.34    	0       	                
S53             	CT-GC           	53              	0.2427  	40      	24.63   	5.22    	0       	                
S54             	CT-GC           	54              	0.5221  	40      	36.13   	2.30    	0       	                
S55             	CT-GC           	55              	1.7630  	70      	66.39   	3.33    	0       	                
S56             	CT-GC           	56              	0.4074  	70      	31.91   	2.62    	0       	                
S57             	CT-GC           	57              	0.1067  	70      	16.33   	4.38    	0       	                
S58             	CT-GC           	58              	0.2707  	70      	26.01   	0.74    	0       	                
S59             	CT-GC           	59              	0.2094  	70      	22.88   	3.18    	0       	                
S60             	CT-GC           	60              	0.3387  	70      	29.10   	2.36    	0       	                
S61             	CT-GC           	61              	0.4861  	70      	34.86   	0.69    	0       	                
S62             	CT-GC           	62              	0.7715  	70      	43.92   	0.95    	0       	                
S63             	CT-GC           	63              	0.5481  	70      	37.02   	5.35    	0       	                
S64             	CT-GC           	64              	0.1040  	70      	16.13   	4.49    	0       	                
S65             	CT-GC           	65              	0.2987  	70      	27.33   	5.80    	0       	                
S66             	CT-GC           	66              	0.2247  	70      	23.70   	2.08    	0       	                
S67             	CT-GC           	67              	0.3127  	70      	27.96   	2.77    	0       	                
S68             	CT-GC           	68              	0.5728  	70      	37.84   	1.51    	0       	                
S69             	CT-GC           	69              	0.2494  	35      	24.97   	2.67    	0       	                
S70             	CT-GC           	70              	0.4861  	70      	34.86   	0.82    	0       	                
S71             	CT-GC           	71              	0.3261  	35      	28.55   	2.04    	0       	                
S77             	CT-GC           	77              	0.4074  	70      	31.91   	1.96    	0       	                
S78             	CT-GC           	78              	0.4614  	70      	33.96   	4.91    	0       	                
S79             	CT-GC           	79              	0.5474  	70      	36.99   	3.05    	0       	                
S80             	CT-GC           	80              	0.4361  	70      	33.02   	3.98    	0       	                
S81             	CT-GC           	81              	1.6536  	70      	64.30   	6.25    	0       	                
S82             	CT-GC           	82              	0.1980  	70      	22.25   	10.44   	0       	                
S83             	CT-GC           	83              	0.7661  	70      	43.76   	9.14    	0       	                
S86             	CT-GC           	86              	0.4401  	70      	33.17   	12.42   	0       	                
S87             	CT-GC           	87              	0.1940  	70      	22.02   	6.53    	0       	                
S88             	CT-GC           	88              	0.5808  	70      	38.10   	13.09   	0       	                
S90             	CT-GC           	90              	0.4327  	70      	32.89   	4.47    	0       	                
S91             	CT-GC           	91              	0.7855  	70      	44.31   	2.72    	0       	                
S92             	CT-GC           	92              	0.5768  	70      	37.97   	5.55    	0       	                
S93             	CT-GC           	93              	1.2109  	70      	55.02   	1.43    	0       	                
S94             	CT-GC           	94              	0.6788  	70      	41.19   	2.85    	0       	                
S96             	CT-GC           	96              	0.3087  	70      	27.78   	12.31   	0       	                
S97             	CT-GC           	97              	0.6268  	70      	39.58   	5.74    	0       	                
S98             	CT-GC           	98              	1.2162  	70      	55.14   	0.50    	0       	                
S99             	CT-GC           	99              	0.8781  	70      	46.85   	3.19    	0       	                
S100            	CT-GC           	100             	0.8375  	70      	45.76   	2.95    	0       	                
S101            	CT-GC           	101             	1.0568  	70      	51.40   	5.49    	0       	                
S102            	CT-GC           	102             	0.8968  	70      	47.35   	4.54    	0       	                
S103            	CT-GC           	103             	0.3994  	70      	31.60   	0.50    	0       	                
S104            	CT-GC           	104             	0.8288  	70      	45.52   	0.72    	0       	                
S105            	CT-GC           	105             	0.4401  	70      	33.17   	0.83    	0       	                
S106            	CT-GC           	106             	0.6621  	70      	40.69   	0.50    	0       	                
S107            	CT-GC           	107             	0.4521  	70      	33.62   	3.02    	0       	                
S108            	CT-GC           	108             	0.5241  	70      	36.20   	0.89    	0       	                
S109            	CT-GC           	109             	1.1215  	70      	52.95   	2.38    	0       	                
S110            	CT-GC           	110             	0.2380  	70      	24.39   	2.24    	0       	                
S111            	CT-GC           	111             	0.4314  	70      	32.84   	0.50    	0       	                
S112            	CT-GC           	112             	1.3696  	70      	58.51   	3.51    	0       	                
S113            	CT-GC           	113             	0.5534  	70      	37.20   	4.82    	0       	                
S114            	CT-GC           	114             	0.5641  	70      	37.55   	2.48    	0       	                
S115            	CT-GC           	115             	0.4401  	70      	33.17   	0.50    	0       	                
S116            	CT-GC           	116             	1.1342  	70      	53.25   	4.41    	0       	                
S117            	CT-GC           	117             	0.5328  	70      	36.49   	2.75    	0       	                
S118            	CT-GC           	118             	0.5628  	35      	37.51   	2.01    	0       	                
S119            	CT-GC           	119             	0.5021  	35      	35.43   	1.46    	0       	                
S120            	CT-GC           	120             	1.4396  	70      	59.99   	5.33    	0       	                
S121            	CT-GC           	121             	1.0595  	70      	51.47   	1.76    	0       	                
S122            	CT-GC           	122             	0.6368  	70      	39.90   	3.87    	0       	                
S123            	CT-GC           	123             	0.4421  	70      	33.24   	2.41    	0       	                
S124            	CT-GC           	124             	0.8361  	70      	45.72   	1.52    	0       	                
S125            	CT-GC           	125             	0.2667  	70      	25.82   	0.50    	0       	                
S126            	CT-GC           	126             	0.5968  	70      	38.63   	3.69    	0       	                
S127            	CT-GC           	127             	0.5014  	70      	35.41   	0.50    	0       	                
S128            	CT-GC           	128             	0.7201  	70      	42.43   	0.65    	0       	                
S129            	CT-GC           	129             	0.9382  	70      	48.43   	2.63    	0       	                
S130            	CT-GC           	130             	0.9362  	70      	48.38   	1.00    	0       	                
S131            	CT-GC           	131             	0.2194  	70      	23.42   	3.34    	0       	                
S132            	CT-GC           	132             	0.9095  	70      	47.68   	1.10    	0       	                
S133            	CT-GC           	133             	0.5221  	70      	36.13   	3.96    	0       	                
S134            	CT-GC           	134             	0.6568  	70      	40.52   	1.22    	0       	                
S135            	CT-GC           	135             	0.5914  	70      	38.45   	1.80    	0       	                
S136            	CT-GC           	136             	0.7081  	70      	42.07   	1.88    	0       	                
S137            	CT-GC           	137             	1.0268  	70      	50.67   	3.12    	0       	                
S138            	CT-GC           	138             	0.4794  	70      	34.62   	2.36    	0       	                
S139            	CT-GC           	139             	0.4961  	70      	35.22   	2.28    	0       	                
S140            	CT-GC           	140             	0.6561  	70      	40.50   	3.76    	0       	                
S148            	CT-GC           	148             	0.7361  	50      	42.90   	5.16    	0       	                
S149            	CT-GC           	149             	1.2515  	15      	55.94   	3.62    	0       	                
S150            	CT-GC           	150             	0.9908  	20      	49.77   	3.03    	0       	                
S151            	CT-GC           	151             	0.9008  	20      	47.46   	1.92    	0       	                
S152            	CT-GC           	152             	0.3701  	70      	30.42   	3.24    	0       	                
S153            	CT-GC           	153             	0.9955  	55      	49.89   	5.02    	0       	                
S154            	CT-GC           	154             	1.1602  	40      	53.86   	3.22    	0       	                
S155            	CT-GC           	155             	0.9335  	40      	48.31   	3.14    	0       	                
S156            	CT-GC           	156             	1.1068  	70      	52.60   	0.60    	0       	                
S157            	CT-GC           	157             	1.3462  	70      	58.01   	1.73    	0       	                
S158            	CT-GC           	158             	1.5222  	50      	61.69   	3.20    	0       	                
S159            	CT-GC           	159             	0.4154  	70      	32.23   	1.28    	0       	                
S160            	CT-GC           	160             	0.3847  	70      	31.01   	3.12    	0       	                
S161            	CT-GC           	161             	0.7228  	70      	42.51   	1.29    	0       	                
S162            	CT-GC           	162             	0.3734  	70      	30.55   	1.96    	0       	                
S163            	CT-GC           	163             	1.0282  	70      	50.70   	1.82    	0       	                
S164            	CT-GC           	164             	0.8508  	70      	46.12   	5.41    	0       	                
S165            	CT-GC           	165             	0.5608  	70      	37.44   	2.62    	0       	                
S166            	CT-GC           	166             	0.5221  	70      	36.13   	5.87    	0       	                
S167            	CT-GC           	167             	0.9822  	70      	49.55   	0.14    	0       	                
S168            	CT-GC           	168             	0.6454  	70      	40.17   	6.10    	0       	                
S169            	CT-GC           	169             	0.8928  	70      	47.24   	3.96    	0       	                
S170            	CT-GC           	170             	0.8515  	70      	46.14   	0.50    	0       	                
S171            	CT-GC           	171             	0.7088  	70      	42.09   	4.14    	0       	                
S172            	CT-GC           	172             	0.5714  	70      	37.80   	5.13    	0       	                
S173            	CT-GC           	173             	0.7681  	70      	43.82   	2.43    	0       	                
S174            	CT-GC           	174             	1.1549  	70      	53.73   	3.00    	0       	                
S175            	CT-GC           	175             	0.8801  	70      	46.91   	4.02    	0       	                
S176            	CT-GC           	176             	0.2627  	70      	25.63   	4.31    	0       	                
S177            	CT-GC           	177             	1.5443  	70      	62.13   	3.67    	0       	                
S178            	CT-GC           	178             	0.2287  	70      	23.91   	0.50    	0       	                
S179            	CT-GC           	179             	0.4721  	70      	34.35   	1.55    	0       	                
S180            	CT-GC           	180             	0.5808  	70      	38.10   	1.95    	0       	                
S181            	CT-GC           	181             	1.2835  	70      	56.65   	2.29    	0       	                
S182            	CT-GC           	182             	0.6141  	70      	39.18   	0.22    	0       	                
S183            	CT-GC           	183             	0.4941  	70      	35.15   	2.83    	0       	                
S184            	CT-GC           	184             	0.6354  	70      	39.86   	2.62    	0       	                
S185            	CT-GC           	185             	0.8035  	35      	44.82   	0.50    	0       	                
S186            	CT-GC           	186             	0.6448  	70      	40.15   	0.72    	0       	                
S187            	CT-GC           	187             	0.7461  	70      	43.19   	2.41    	0       	                
S188            	CT-GC           	188             	0.6228  	70      	39.46   	2.46    	0       	                
S189            	CT-GC           	189             	0.5614  	35      	37.46   	0.50    	0       	                
S190            	CT-GC           	190             	0.4387  	35      	33.12   	0.50    	0       	                
S191            	CT-GC           	191             	0.4707  	10      	34.31   	2.41    	0       	                
S193            	CT-GC           	193             	0.6801  	35      	41.23   	1.27    	0       	                
S194            	CT-GC           	194             	0.6321  	35      	39.75   	2.32    	0       	                
S195            	CT-GC           	195             	0.3481  	35      	29.50   	0.50    	0       	                
S196            	CT-GC           	196             	0.5328  	70      	36.49   	5.38    	0       	                
S197            	CT-GC           	197             	0.5401  	70      	36.75   	1.23    	0       	                
S198            	CT-GC           	198             	0.6961  	70      	41.72   	0.50    	0       	                
S199            	CT-GC           	199             	0.3287  	70      	28.67   	2.64    	0       	                
S200            	CT-GC           	200             	0.5061  	70      	35.57   	0.92    	0       	                
S201            	CT-GC           	201             	0.4507  	70      	33.57   	1.18    	0       	                
S202            	CT-GC           	202             	0.3040  	70      	27.57   	0.44    	0       	                
S203            	CT-GC           	203             	1.0695  	70      	51.71   	1.68    	0       	                
S204            	CT-GC           	204             	0.4407  	70      	33.19   	0.76    	0       	                
S205            	CT-GC           	205             	0.5001  	70      	35.36   	1.20    	0       	                
S206            	CT-GC           	206             	0.3441  	70      	29.33   	1.36    	0       	                
S207            	CT-GC           	207             	0.4001  	70      	31.63   	0.50    	0       	                
S208            	CT-GC           	208             	0.4074  	70      	31.91   	0.65    	0       	                
S209            	CT-GC           	209             	0.3621  	70      	30.09   	0.50    	0       	                
S210            	CT-GC           	210             	0.2980  	70      	27.30   	0.50    	0       	                
S211            	CT-GC           	211             	0.3674  	70      	30.31   	2.54    	0       	                
S212            	CT-GC           	212             	0.8348  	70      	45.68   	0.50    	0       	                
S213            	CT-GC           	213             	0.4014  	70      	31.68   	4.15    	0       	                
S214            	CT-GC           	214             	0.3181  	70      	28.20   	1.68    	0       	                
S215            	CT-GC           	215             	0.3147  	70      	28.05   	2.75    	0       	                
S216            	CT-GC           	216             	1.3342  	70      	57.75   	3.65    	0       	                
S217            	CT-GC           	217             	0.4367  	70      	33.04   	2.60    	0       	                
S218            	CT-GC           	218             	0.2780  	70      	26.37   	0.50    	0       	                
S219            	CT-GC           	219             	0.2107  	70      	22.95   	0.63    	0       	                
S226            	CT-GC           	226             	0.3754  	70      	30.63   	2.13    	0       	                
S227            	CT-GC           	227             	0.3627  	70      	30.11   	5.51    	0       	                
S228            	CT-GC           	228             	0.2647  	70      	25.72   	1.26    	0       	                
S231            	CT-GC           	231             	0.5314  	70      	36.45   	2.51    	0       	                
S234            	CT-GC           	234             	0.4801  	70      	34.64   	1.53    	0       	                
S237            	CT-GC           	237             	0.5908  	70      	38.43   	2.14    	0       	                
S240            	CT-GC           	240             	0.5888  	70      	38.37   	1.93    	0       	                
S241            	CT-GC           	241             	0.7341  	70      	42.84   	1.27    	0       	                
S242            	CT-GC           	242             	0.3234  	70      	28.43   	3.30    	0       	                
S243            	CT-GC           	243             	0.8068  	70      	44.91   	2.73    	0       	                
S244            	CT-GC           	244             	0.3147  	70      	28.05   	0.21    	0       	                
S245            	CT-GC           	245             	0.3827  	70      	30.93   	0.50    	0       	                
S246            	CT-GC           	246             	0.4907  	70      	35.03   	0.95    	0       	                
S247            	CT-GC           	247             	0.5868  	70      	38.30   	1.25    	0       	                
S248            	CT-GC           	248             	0.3647  	70      	30.20   	0.73    	0       	                
S249            	CT-GC           	249             	0.3781  	70      	30.74   	0.71    	0       	                
S250            	CT-GC           	250             	0.4354  	70      	32.99   	0.50    	0       	                
S251            	CT-GC           	251             	0.3054  	70      	27.63   	1.97    	0       	                
S253            	CT-GC           	253             	0.3894  	70      	31.20   	0.51    	0       	                
S254            	CT-GC           	254             	0.4141  	70      	32.17   	0.50    	0       	                
S255            	CT-GC           	255             	0.2807  	70      	26.49   	0.71    	0       	                
S256            	CT-GC           	256             	0.2127  	70      	23.06   	0.50    	0       	                
S257            	CT-GC           	257             	0.2020  	70      	22.47   	0.50    	0       	                
S258            	CT-GC           	258             	0.2914  	70      	26.99   	0.46    	0       	                
S259            	CT-GC           	259             	0.2767  	70      	26.30   	0.72    	0       	                
S260            	CT-GC           	260             	0.7901  	70      	44.44   	1.35    	0       	                
S261            	CT-GC           	261             	0.8408  	70      	45.85   	0.50    	0       	                
S262            	CT-GC           	262             	0.7488  	70      	43.27   	3.29    	0       	                
S263            	CT-GC           	263             	0.2980  	35      	27.30   	2.91    	0       	                
S264            	CT-GC           	264             	0.6381  	35      	39.94   	0.94    	0       	                
S265            	CT-GC           	265             	1.9236  	70      	69.35   	3.57    	0       	                
S266            	CT-GC           	266             	0.1974  	35      	22.21   	5.41    	0       	                
S267            	CT-GC           	267             	0.4334  	35      	32.92   	0.77    	0       	                
S268            	CT-GC           	268             	1.1882  	70      	54.50   	0.84    	0       	                
S269            	CT-GC           	269             	0.2534  	70      	25.17   	0.50    	0       	                
S270            	CT-GC           	270             	0.5314  	70      	36.45   	0.38    	0       	                
S271            	CT-GC           	271             	0.4101  	70      	32.02   	0.16    	0       	                
S272            	CT-GC           	272             	0.2547  	70      	25.23   	0.50    	0       	                
S273            	CT-GC           	273             	0.5408  	70      	36.77   	0.49    	0       	                
S274            	CT-GC           	274             	0.2420  	70      	24.60   	0.55    	0       	                
S275            	CT-GC           	275             	0.3314  	70      	28.78   	0.20    	0       	                
S276            	CT-GC           	276             	0.2527  	70      	25.14   	1.58    	0       	                
S277            	CT-GC           	277             	0.3734  	70      	30.55   	1.96    	0       	                
S278            	CT-GC           	278             	0.3314  	70      	28.78   	0.50    	0       	                
S279            	CT-GC           	279             	0.7855  	70      	44.31   	1.61    	0       	                
S280            	CT-GC           	280             	0.6781  	70      	41.17   	1.77    	0       	                
S281            	CT-GC           	281             	0.8535  	70      	46.19   	3.13    	0       	                
S282            	CT-GC           	282             	1.1188  	70      	52.89   	5.60    	0       	                
S283            	CT-GC           	283             	0.3461  	70      	29.41   	6.94    	0       	                
S284            	CT-GC           	284             	0.4067  	70      	31.89   	5.74    	0       	                
S285            	CT-GC           	285             	0.4727  	70      	34.38   	5.36    	0       	                
S286            	CT-GC           	286             	1.5416  	70      	62.08   	0.17    	0       	                
S287            	CT-GC           	287             	0.5087  	70      	35.66   	0.92    	0       	                
S288            	CT-GC           	288             	0.8395  	70      	45.81   	1.51    	0       	                
S289            	CT-GC           	289             	0.4627  	70      	34.01   	2.16    	0       	                
S290            	CT-GC           	290             	0.5408  	70      	36.77   	0.50    	0       	                
S291            	CT-GC           	291             	1.0715  	70      	51.76   	2.36    	0       	                
S292            	CT-GC           	292             	0.2654  	70      	25.76   	0.75    	0       	                
S293            	CT-GC           	293             	0.4581  	70      	33.84   	2.18    	0       	                
S294            	CT-GC           	294             	0.0860  	70      	14.66   	0.78    	0       	                
S295            	CT-GC           	295             	0.6201  	70      	39.37   	2.69    	0       	                
S296            	CT-GC           	296             	0.4967  	70      	35.24   	1.07    	0       	                
S297            	CT-GC           	297             	0.3087  	70      	27.78   	2.59    	0       	                
S298            	CT-GC           	298             	0.4981  	70      	35.29   	2.28    	0       	                
S299            	CT-GC           	299             	0.1634  	70      	20.21   	0.82    	0       	                
S300            	CT-GC           	300             	0.2620  	70      	25.60   	1.02    	0       	                
S301            	CT-GC           	301             	0.4781  	70      	34.57   	6.97    	0       	                
S302            	CT-GC           	302             	1.0375  	70      	50.93   	1.48    	0       	                
S303            	CT-GC           	303             	0.2620  	70      	25.60   	6.36    	0       	                
S304            	CT-GC           	304             	0.4194  	70      	32.38   	0.79    	0       	                
S305            	CT-GC           	305             	0.4621  	70      	33.99   	1.30    	0       	                
S306            	CT-GC           	306             	0.3514  	70      	29.64   	0.50    	0       	                
S307            	CT-GC           	307             	0.4481  	70      	33.47   	0.89    	0       	                
S308            	CT-GC           	308             	0.2794  	70      	26.43   	1.43    	0       	                
S309            	CT-GC           	309             	0.1320  	70      	18.17   	0.50    	0       	                